py_fx_tools_dss/IMEX_to_DSS/xlsx_DSS_xlsx/Examples/13NodeIEEE/Line_default.dss
New "Line.650632" phases=3 bus1=rg60.1.2.3 bus2=632.1.2.3 linecode=mtx601 length=2000.0 units=ft normamps=400.0 emergamps=600.0 
New "Line.632670" phases=3 bus1=632.1.2.3 bus2=670.1.2.3 linecode=mtx601 length=667.0 units=ft normamps=400.0 emergamps=600.0 
New "Line.670671" phases=3 bus1=670.1.2.3 bus2=671.1.2.3 linecode=mtx601 length=1333.0 units=ft normamps=400.0 emergamps=600.0 
New "Line.671680" phases=3 bus1=671.1.2.3 bus2=680.1.2.3 linecode=mtx601 length=1000.0 units=ft normamps=400.0 emergamps=600.0 
New "Line.632633" phases=3 bus1=632.1.2.3 bus2=633.1.2.3 linecode=mtx602 length=500.0 units=ft normamps=400.0 emergamps=600.0 
New "Line.632645" phases=2 bus1=632.3.2 bus2=645.3.2 linecode=mtx603 length=500.0 units=ft normamps=400.0 emergamps=600.0 
New "Line.645646" phases=2 bus1=645.3.2 bus2=646.3.2 linecode=mtx603 length=300.0 units=ft normamps=400.0 emergamps=600.0 
New "Line.692675" phases=3 bus1=692.1.2.3 bus2=675.1.2.3 linecode=mtx606 length=500.0 units=ft normamps=400.0 emergamps=600.0 
New "Line.671684" phases=2 bus1=671.1.3 bus2=684.1.3 linecode=mtx604 length=300.0 units=ft normamps=400.0 emergamps=600.0 
New "Line.684611" phases=1 bus1=684.3 bus2=611.3 linecode=mtx605 length=300.0 units=ft normamps=400.0 emergamps=600.0 
New "Line.684652" phases=1 bus1=684.1 bus2=652.1 linecode=mtx607 length=800.0 units=ft normamps=400.0 emergamps=600.0 
New "Line.671692" phases=3 bus1=671 bus2=692 r1=0.001 x1=0.0 r0=0.001 x0=0.0 C1=0.0 C0=0.0 Switch=True 
